/*--------------------------------*- C++ -*----------------------------------*\
| =========                 |                                                 |
| \\      /  F ield         | OpenFOAM: The Open Source CFD Toolbox           |
|  \\    /   O peration     | Version:  v2106                                 |
|   \\  /    A nd           | Website:  www.openfoam.com                      |
|    \\/     M anipulation  |                                                 |
\*---------------------------------------------------------------------------*/
FoamFile
{
    version     2.0;
    format      ascii;
    class       dictionary;
    object      controlDict;
}
// * * * * * * * * * * * * * * * * * * * * * * * * * * * * * * * * * * * * * //

application         laplacianFoam;

startFrom           latestTime;

startTime           0;

stopAt              endTime;

endTime             3;

deltaT              0.5;

writeControl        timeStep;

writeInterval       2;

purgeWrite          0;

writeFormat         ascii;

writePrecision      13;

writeCompression    off;

timeFormat          general;

timePrecision       8;

adjustTimeStep      true;

libs ("libnewBoundaryCondition.so");
