/*--------------------------------*- C++ -*----------------------------------*\
| =========                 |                                                 |
| \\      /  F ield         | OpenFOAM: The Open Source CFD Toolbox           |
|  \\    /   O peration     | Version:  v2112                                 |
|   \\  /    A nd           | Website:  www.openfoam.com                      |
|    \\/     M anipulation  |                                                 |
\*---------------------------------------------------------------------------*/
FoamFile
{
    version     2.0;
    format      ascii;
    class       volScalarField;
    object      T;
}
// * * * * * * * * * * * * * * * * * * * * * * * * * * * * * * * * * * * * * //

dimensions      [0 0 0 1 0 0 0];

internalField   uniform 350;

boundaryField
{
    "(patch1|patch3)"
    {
        type            zeroGradient;
    }

    patch2
    {        
        type            codedFixedValue;
        value uniform   350;
        name            newTemperature_coded;
        code        
        #{

        //Access the dimensioned internalField
        const DimensionedField<scalar, volMesh>& tInt =                         
                                    this->internalField();

        //Calculate cell volume weighted average of the field                
        const dimensionedScalar tAverage =                   
                tInt.weightedAverage(patch().boundaryMesh().mesh().V());
        
        //set the fixed value boundary condition according specified switch value and calculated average value                    
        scalar TSwitch_(400);                    
        scalar TCooling_(350);
        scalar THeating_(650);
                        
        if (tAverage.value() < TSwitch_)
            {                   
                operator==(THeating_);               
            }               
        else                
            {                    
                operator==(TCooling_);                 
            }        
        #};    
    }


    patch4
    {
        type            zeroGradient;
    }
}


// ************************************************************************* //
