/*--------------------------------*- C++ -*----------------------------------*\
| =========                 |                                                 |
| \\      /  F ield         | OpenFOAM: The Open Source CFD Toolbox           |
|  \\    /   O peration     | Version:  v2306                                 |
|   \\  /    A nd           | Website:  www.openfoam.com                      |
|    \\/     M anipulation  |                                                 |
\*---------------------------------------------------------------------------*/
FoamFile
{
    version     2.0;
    format      ascii;
    class       dictionary;
    object      blockMeshDict;
}
// * * * * * * * * * * * * * * * * * * * * * * * * * * * * * * * * * * * * * //

// convertToMeters 0.1;
scale 0.1;

// Geometry Parametrization
    //Lenghts
    L   4.5;
    //Heigths
    h   0.5;
    H   1.5;
    //depth
    z0 -0.1; // back plane
    z1  0.1; // front plane
    
vertices
(
    (  0.0  0.0  $z0 )   // id:  0
    (  $L   0.0  $z0 )   // id:  1    
    (  $L   $h   $z0 )   // id:  2    
    (  0.0  $h   $z0 )   // id:  3
    (  $L   $H   $z0 )   // id:  4
    (  0.0  $H   $z0 )   // id:  5
    ( -2.5  $H   $z0 )   // id:  6
    ( -2.5  $h   $z0 )   // id:  7

    (  0.0  0.0  $z1 )   // id:  8
    (  $L   0.0  $z1 )   // id:  9
    (  $L   $h   $z1 )   // id: 10
    (  0.0  $h   $z1 )   // id: 11
    (  $L   $H   $z1 )   // id: 12
    (  0.0  $H   $z1 )   // id: 13
    ( -2.5  $H   $z1 )   // id: 14
    ( -2.5  $h   $z1 )   // id: 15
);

// Mesh refinement controls
    
    NX 45; // X direction Downstream Step
    NY  5; // Y direction Downstream Step Step height
    Nx 25; // x direction Upstream Step
    Ny 10; // y direction Upstream Step inlet channel height
    Nz  1; // Z direction Channel depth  

blocks
(
    hex (0 1 2 3  8  9 10 11) ($NX $NY $Nz) simpleGrading (1 1 1) // block id: 0
    hex (3 2 4 5 11 10 12 13) ($NX $Ny $Nz) simpleGrading (1 1 1) // block id: 1
    hex (7 3 5 6 15 11 13 14) ($Nx $Ny $Nz) simpleGrading (1 1 1) // block id: 2
);

    //Arc Parametrization
        factor  0.5;
        
        //Vertices Block 1
        cXV1    #calc   "$L*0.5";
        cYV1    #calc   "(($H - $h)*$factor)+$h";

        //Vertices Block 0
        cYV2    #calc   "$cYV1*($h/$H)"; //((($H - $h)*$factor)+$h)*($h/$H)";
edges
(
    //Block 1
    arc  5  4 ($cXV1 $cYV1 $z0) 
    arc 13 12 ($cXV1 $cYV1 $z1)
    //Block 0
    arc  3  2 ($cXV1 $cYV2 $z0) 
    arc 11 10 ($cXV1 $cYV2 $z1)

);

/*
edges
(
    
);
*/

boundary
(
    inlet
    {
        type patch;
        faces
        (
            (6 7 15 14)
        );
    }
    outlet
    {
        type patch;
        faces
        (
            ( 9 1 2 10)
            (10 2 4 12)
        );
    }
    walls
    {
        type wall;
        faces
        (
            //Bottom
            ( 7  3 11 15)
            ( 3  0  8 11)
            ( 0  1  9  8)
            
            //Top
            ( 4  5 13 12)
            ( 5  6 14 13)
        );
    }
    frontAndBack
    {
        type empty;
        faces
        (
            //front
            ( 8  9 10 11)
            (11 10 12 13)
            (15 11 13 14)

            //Back
            (0 3 2 1)
            (3 5 4 2)
            (7 6 5 3)
        );
    }
);

mergePatchPairs
(
);

// ************************************************************************* //
